<?xml version="1.0" encoding="UTF-8"?>

<!-- generated on dim. 18 oct. 2020 17:22:46 CEST by Eclipse SUMO netedit Version v1_7_0+0643-0277064105
<configuration xmlns:xsi="http://www.w3.org/2001/XMLSchema-instance" xsi:noNamespaceSchemaLocation="http://sumo.dlr.de/xsd/netconvertConfiguration.xsd">

    <input>
        <sumo-net-file value="Mathematical-modeling-for-intelligent-systems/project/sumo/helloworld/helloworld.net.xml"/>
    </input>

    <output>
        <output-file value="Mathematical-modeling-for-intelligent-systems/project/sumo/helloworld/helloworld.net.xml"/>
    </output>

    <processing>
        <geometry.min-radius.fix.railways value="false"/>
        <geometry.max-grade.fix value="false"/>
        <offset.disable-normalization value="true"/>
        <lefthand value="false"/>
    </processing>

    <junctions>
        <no-turnarounds value="true"/>
        <junctions.corner-detail value="5"/>
        <junctions.limit-turn-speed value="5.5"/>
        <rectangular-lane-cut value="false"/>
    </junctions>

    <pedestrian>
        <walkingareas value="false"/>
    </pedestrian>

    <netedit>
        <route-files value="Mathematical-modeling-for-intelligent-systems/project/sumo/helloworld/helloworld.net.xml/>
    </netedit>

    <report>
        <aggregate-warnings value="5"/>
    </report>

</configuration>
-->

<routes xmlns:xsi="http://www.w3.org/2001/XMLSchema-instance" xsi:noNamespaceSchemaLocation="http://sumo.dlr.de/xsd/routes_file.xsd">
    <route edges="1to2 out" color="yellow" id="route_0"/>
    <route edges="1to2 out" color="yellow" id="route_1"/>
    <trip id="vehicle_0" depart="0.00" from="1to2" to="out"/>
</routes>
