<?xml version="1.0" encoding="UTF-8"?>

<!-- generated on mer. 21 oct. 2020 17:46:12 CEST by Eclipse SUMO netedit Version v1_7_0+0643-0277064105
<configuration xmlns:xsi="http://www.w3.org/2001/XMLSchema-instance" xsi:noNamespaceSchemaLocation="http://sumo.dlr.de/xsd/netconvertConfiguration.xsd">

    <input>
        <sumo-net-file value="quickstart.net.xml"/>
    </input>

    <output>
        <output-file value="quickstart.net.xml"/>
    </output>

    <processing>
        <geometry.min-radius.fix.railways value="false"/>
        <geometry.max-grade.fix value="false"/>
        <offset.disable-normalization value="true"/>
        <lefthand value="false"/>
    </processing>

    <junctions>
        <no-internal-links value="true"/>
        <no-turnarounds value="true"/>
        <junctions.corner-detail value="5"/>
        <junctions.limit-turn-speed value="5.5"/>
        <rectangular-lane-cut value="false"/>
    </junctions>

    <pedestrian>
        <walkingareas value="false"/>
    </pedestrian>

    <report>
        <aggregate-warnings value="5"/>
    </report>

</configuration>
-->

<net version="1.6" junctionCornerDetail="5" limitTurnSpeed="5.50" xmlns:xsi="http://www.w3.org/2001/XMLSchema-instance" xsi:noNamespaceSchemaLocation="http://sumo.dlr.de/xsd/net_file.xsd">

    <location netOffset="0.00,0.00" convBoundary="-1000.00,0.00,3000.00,1000.00" origBoundary="-10000000000.00,-10000000000.00,10000000000.00,10000000000.00" projParameter="!"/>

    <edge id="D1" from="911" to="91" priority="3">
        <lane id="D1_0" index="0" speed="13.89" length="500.00" shape="-500.00,1008.00 -1000.00,1008.00"/>
        <lane id="D1_1" index="1" speed="13.89" length="500.00" shape="-500.00,1004.80 -1000.00,1004.80"/>
        <lane id="D1_2" index="2" speed="13.89" length="500.00" shape="-500.00,1001.60 -1000.00,1001.60"/>
    </edge>
    <edge id="D2" from="91" to="911" priority="3">
        <lane id="D2_0" index="0" speed="13.89" length="500.00" shape="-1000.00,995.20 -500.00,995.20"/>
        <lane id="D2_1" index="1" speed="13.89" length="500.00" shape="-1000.00,998.40 -500.00,998.40"/>
    </edge>
    <edge id="D3" from="912" to="92" priority="3">
        <lane id="D3_0" index="0" speed="13.89" length="500.00" shape="-500.00,8.00 -1000.00,8.00"/>
        <lane id="D3_1" index="1" speed="13.89" length="500.00" shape="-500.00,4.80 -1000.00,4.80"/>
        <lane id="D3_2" index="2" speed="13.89" length="500.00" shape="-500.00,1.60 -1000.00,1.60"/>
    </edge>
    <edge id="D4" from="92" to="912" priority="3">
        <lane id="D4_0" index="0" speed="13.89" length="500.00" shape="-1000.00,-4.80 -500.00,-4.80"/>
        <lane id="D4_1" index="1" speed="13.89" length="500.00" shape="-1000.00,-1.60 -500.00,-1.60"/>
    </edge>
    <edge id="D5" from="913" to="93" priority="3">
        <lane id="D5_0" index="0" speed="13.89" length="500.00" shape="2500.00,-8.00 3000.00,-8.00"/>
        <lane id="D5_1" index="1" speed="13.89" length="500.00" shape="2500.00,-4.80 3000.00,-4.80"/>
        <lane id="D5_2" index="2" speed="13.89" length="500.00" shape="2500.00,-1.60 3000.00,-1.60"/>
    </edge>
    <edge id="D6" from="93" to="913" priority="3">
        <lane id="D6_0" index="0" speed="13.89" length="500.00" shape="3000.00,4.80 2500.00,4.80"/>
        <lane id="D6_1" index="1" speed="13.89" length="500.00" shape="3000.00,1.60 2500.00,1.60"/>
    </edge>
    <edge id="D7" from="914" to="94" priority="3">
        <lane id="D7_0" index="0" speed="13.89" length="500.00" shape="2500.00,992.00 3000.00,992.00"/>
        <lane id="D7_1" index="1" speed="13.89" length="500.00" shape="2500.00,995.20 3000.00,995.20"/>
        <lane id="D7_2" index="2" speed="13.89" length="500.00" shape="2500.00,998.40 3000.00,998.40"/>
    </edge>
    <edge id="D8" from="94" to="914" priority="3">
        <lane id="D8_0" index="0" speed="13.89" length="500.00" shape="3000.00,1004.80 2500.00,1004.80"/>
        <lane id="D8_1" index="1" speed="13.89" length="500.00" shape="3000.00,1001.60 2500.00,1001.60"/>
    </edge>
    <edge id="L1" from="1" to="911" priority="3">
        <lane id="L1_0" index="0" speed="13.89" length="500.00" shape="-4.00,1008.00 -500.00,1008.00"/>
        <lane id="L1_1" index="1" speed="13.89" length="500.00" shape="-4.00,1004.80 -500.00,1004.80"/>
        <lane id="L1_2" index="2" speed="13.89" length="500.00" shape="-4.00,1001.60 -500.00,1001.60"/>
    </edge>
    <edge id="L10" from="6" to="5" priority="3">
        <lane id="L10_0" index="0" speed="13.89" length="1000.00" shape="1013.60,992.00 1996.00,992.00"/>
        <lane id="L10_1" index="1" speed="13.89" length="1000.00" shape="1013.60,995.20 1996.00,995.20"/>
        <lane id="L10_2" index="2" speed="13.89" length="1000.00" shape="1013.60,998.40 1996.00,998.40"/>
    </edge>
    <edge id="L11" from="6" to="1" priority="3">
        <lane id="L11_0" index="0" speed="13.89" length="1000.00" shape="986.40,1008.00 4.00,1008.00"/>
        <lane id="L11_1" index="1" speed="13.89" length="1000.00" shape="986.40,1004.80 4.00,1004.80"/>
        <lane id="L11_2" index="2" speed="13.89" length="1000.00" shape="986.40,1001.60 4.00,1001.60"/>
    </edge>
    <edge id="L12" from="1" to="6" priority="3" spreadType="roadCenter">
        <lane id="L12_0" index="0" speed="13.89" length="1000.00" shape="4.00,992.00 986.40,992.00"/>
        <lane id="L12_1" index="1" speed="13.89" length="1000.00" shape="4.00,995.20 986.40,995.20"/>
        <lane id="L12_2" index="2" speed="13.89" length="1000.00" shape="4.00,998.40 986.40,998.40"/>
    </edge>
    <edge id="L13" from="3" to="2" priority="3">
        <lane id="L13_0" index="0" speed="13.89" length="1000.00" shape="986.40,8.00 4.00,8.00"/>
        <lane id="L13_1" index="1" speed="13.89" length="1000.00" shape="986.40,4.80 4.00,4.80"/>
        <lane id="L13_2" index="2" speed="13.89" length="1000.00" shape="986.40,1.60 4.00,1.60"/>
    </edge>
    <edge id="L14" from="2" to="3" priority="3">
        <lane id="L14_0" index="0" speed="13.89" length="1000.00" shape="4.00,-8.00 986.40,-8.00"/>
        <lane id="L14_1" index="1" speed="13.89" length="1000.00" shape="4.00,-4.80 986.40,-4.80"/>
        <lane id="L14_2" index="2" speed="13.89" length="1000.00" shape="4.00,-1.60 986.40,-1.60"/>
    </edge>
    <edge id="L15" from="6" to="3" priority="2">
        <lane id="L15_0" index="0" speed="13.89" length="1000.00" shape="992.00,986.40 992.00,13.60"/>
        <lane id="L15_1" index="1" speed="13.89" length="1000.00" shape="995.20,986.40 995.20,13.60"/>
        <lane id="L15_2" index="2" speed="13.89" length="1000.00" shape="998.40,986.40 998.40,13.60"/>
    </edge>
    <edge id="L16" from="3" to="6" priority="2">
        <lane id="L16_0" index="0" speed="13.89" length="1000.00" shape="1008.00,13.60 1008.00,986.40"/>
        <lane id="L16_1" index="1" speed="13.89" length="1000.00" shape="1004.80,13.60 1004.80,986.40"/>
        <lane id="L16_2" index="2" speed="13.89" length="1000.00" shape="1001.60,13.60 1001.60,986.40"/>
    </edge>
    <edge id="L17" from="4" to="3" priority="3">
        <lane id="L17_0" index="0" speed="13.89" length="1000.00" shape="1996.00,8.00 1013.60,8.00"/>
        <lane id="L17_1" index="1" speed="13.89" length="1000.00" shape="1996.00,4.80 1013.60,4.80"/>
        <lane id="L17_2" index="2" speed="13.89" length="1000.00" shape="1996.00,1.60 1013.60,1.60"/>
    </edge>
    <edge id="L18" from="3" to="4" priority="3">
        <lane id="L18_0" index="0" speed="13.89" length="1000.00" shape="1013.60,-8.00 1996.00,-8.00"/>
        <lane id="L18_1" index="1" speed="13.89" length="1000.00" shape="1013.60,-4.80 1996.00,-4.80"/>
        <lane id="L18_2" index="2" speed="13.89" length="1000.00" shape="1013.60,-1.60 1996.00,-1.60"/>
    </edge>
    <edge id="L2" from="911" to="1" priority="3">
        <lane id="L2_0" index="0" speed="13.89" length="500.00" shape="-500.00,995.20 -4.00,995.20"/>
        <lane id="L2_1" index="1" speed="13.89" length="500.00" shape="-500.00,998.40 -4.00,998.40"/>
    </edge>
    <edge id="L3" from="2" to="912" priority="3">
        <lane id="L3_0" index="0" speed="13.89" length="500.00" shape="-4.00,8.00 -500.00,8.00"/>
        <lane id="L3_1" index="1" speed="13.89" length="500.00" shape="-4.00,4.80 -500.00,4.80"/>
        <lane id="L3_2" index="2" speed="13.89" length="500.00" shape="-4.00,1.60 -500.00,1.60"/>
    </edge>
    <edge id="L4" from="912" to="2" priority="3">
        <lane id="L4_0" index="0" speed="13.89" length="500.00" shape="-500.00,-4.80 -4.00,-4.80"/>
        <lane id="L4_1" index="1" speed="13.89" length="500.00" shape="-500.00,-1.60 -4.00,-1.60"/>
    </edge>
    <edge id="L5" from="4" to="913" priority="3">
        <lane id="L5_0" index="0" speed="13.89" length="500.00" shape="2004.00,-8.00 2500.00,-8.00"/>
        <lane id="L5_1" index="1" speed="13.89" length="500.00" shape="2004.00,-4.80 2500.00,-4.80"/>
        <lane id="L5_2" index="2" speed="13.89" length="500.00" shape="2004.00,-1.60 2500.00,-1.60"/>
    </edge>
    <edge id="L6" from="913" to="4" priority="3">
        <lane id="L6_0" index="0" speed="13.89" length="500.00" shape="2500.00,4.80 2004.00,4.80"/>
        <lane id="L6_1" index="1" speed="13.89" length="500.00" shape="2500.00,1.60 2004.00,1.60"/>
    </edge>
    <edge id="L7" from="5" to="914" priority="3">
        <lane id="L7_0" index="0" speed="13.89" length="500.00" shape="2004.00,992.00 2500.00,992.00"/>
        <lane id="L7_1" index="1" speed="13.89" length="500.00" shape="2004.00,995.20 2500.00,995.20"/>
        <lane id="L7_2" index="2" speed="13.89" length="500.00" shape="2004.00,998.40 2500.00,998.40"/>
    </edge>
    <edge id="L8" from="914" to="5" priority="3">
        <lane id="L8_0" index="0" speed="13.89" length="500.00" shape="2500.00,1004.80 2004.00,1004.80"/>
        <lane id="L8_1" index="1" speed="13.89" length="500.00" shape="2500.00,1001.60 2004.00,1001.60"/>
    </edge>
    <edge id="L9" from="5" to="6" priority="3">
        <lane id="L9_0" index="0" speed="13.89" length="1000.00" shape="1996.00,1008.00 1013.60,1008.00"/>
        <lane id="L9_1" index="1" speed="13.89" length="1000.00" shape="1996.00,1004.80 1013.60,1004.80"/>
        <lane id="L9_2" index="2" speed="13.89" length="1000.00" shape="1996.00,1001.60 1013.60,1001.60"/>
    </edge>

    <junction id="1" type="priority" x="0.00" y="1000.00" incLanes="L11_0 L11_1 L11_2 L2_0 L2_1" intLanes="" shape="4.00,1009.60 4.00,990.40 0.97,991.23 -0.97,992.77 -2.21,993.36 -4.00,993.60 -4.00,1009.60">
        <request index="0" response="000000" foes="000000"/>
        <request index="1" response="000000" foes="000000"/>
        <request index="2" response="000000" foes="000000"/>
        <request index="3" response="000000" foes="000000"/>
        <request index="4" response="000000" foes="000000"/>
        <request index="5" response="000000" foes="000000"/>
    </junction>
    <junction id="2" type="priority" x="0.00" y="0.00" incLanes="L13_0 L13_1 L13_2 L4_0 L4_1" intLanes="" shape="4.00,9.60 4.00,-9.60 0.97,-8.77 -0.97,-7.23 -2.21,-6.64 -4.00,-6.40 -4.00,9.60">
        <request index="0" response="000000" foes="000000"/>
        <request index="1" response="000000" foes="000000"/>
        <request index="2" response="000000" foes="000000"/>
        <request index="3" response="000000" foes="000000"/>
        <request index="4" response="000000" foes="000000"/>
        <request index="5" response="000000" foes="000000"/>
    </junction>
    <junction id="3" type="priority" x="1000.00" y="0.00" incLanes="L15_0 L15_1 L15_2 L17_0 L17_1 L17_2 L14_0 L14_1 L14_2" intLanes="" shape="990.40,13.60 1009.60,13.60 1010.04,11.38 1010.60,10.60 1011.38,10.04 1012.38,9.71 1013.60,9.60 1013.60,-9.60 986.40,-9.60 986.40,9.60 988.62,10.04 989.40,10.60 989.96,11.38 990.29,12.38">
        <request index="0"  response="0000011010000" foes="0000011010000"/>
        <request index="1"  response="0000011010000" foes="0000011010000"/>
        <request index="2"  response="1111111010000" foes="1111111010000"/>
        <request index="3"  response="0000000000000" foes="1010000000000"/>
        <request index="4"  response="0000000000000" foes="1010000100111"/>
        <request index="5"  response="0000000010000" foes="1010000010000"/>
        <request index="6"  response="0000000000000" foes="1010000000111"/>
        <request index="7"  response="0000000000000" foes="1010000000111"/>
        <request index="8"  response="0000000000000" foes="0000000000100"/>
        <request index="9"  response="0000000000000" foes="0000000000100"/>
        <request index="10" response="0100011111000" foes="0100011111100"/>
        <request index="11" response="0000000000000" foes="0010000000100"/>
        <request index="12" response="0000011111000" foes="0000011111100"/>
    </junction>
    <junction id="4" type="priority" x="2000.00" y="0.00" incLanes="L6_0 L6_1 L18_0 L18_1 L18_2" intLanes="" shape="2004.00,6.40 2004.00,-9.60 1996.00,-9.60 1996.00,9.60 1999.03,8.77 2000.97,7.23 2002.21,6.64">
        <request index="0" response="000000" foes="000000"/>
        <request index="1" response="000000" foes="000000"/>
        <request index="2" response="000000" foes="000000"/>
        <request index="3" response="000000" foes="000000"/>
        <request index="4" response="000000" foes="000000"/>
        <request index="5" response="000000" foes="000000"/>
    </junction>
    <junction id="5" type="priority" x="2000.00" y="1000.00" incLanes="L8_0 L8_1 L10_0 L10_1 L10_2" intLanes="" shape="2004.00,1006.40 2004.00,990.40 1996.00,990.40 1996.00,1009.60 1999.03,1008.77 2000.97,1007.23 2002.21,1006.64">
        <request index="0" response="000000" foes="000000"/>
        <request index="1" response="000000" foes="000000"/>
        <request index="2" response="000000" foes="000000"/>
        <request index="3" response="000000" foes="000000"/>
        <request index="4" response="000000" foes="000000"/>
        <request index="5" response="000000" foes="000000"/>
    </junction>
    <junction id="6" type="priority" x="1000.00" y="1000.00" incLanes="L9_0 L9_1 L9_2 L16_0 L16_1 L16_2 L12_0 L12_1 L12_2" intLanes="" shape="1013.60,1009.60 1013.60,990.40 1011.38,989.96 1010.60,989.40 1010.04,988.62 1009.71,987.62 1009.60,986.40 990.40,986.40 989.96,988.62 989.40,989.40 988.62,989.96 987.62,990.29 986.40,990.40 986.40,1009.60">
        <request index="0"  response="0000000000000" foes="0000010000000"/>
        <request index="1"  response="0000000000000" foes="0000010000000"/>
        <request index="2"  response="1111100001000" foes="1111110001000"/>
        <request index="3"  response="0000000000000" foes="0000010000100"/>
        <request index="4"  response="1111100000000" foes="1111110000000"/>
        <request index="5"  response="1101000000000" foes="1101000000000"/>
        <request index="6"  response="1101000000000" foes="1101000000000"/>
        <request index="7"  response="1101000011111" foes="1101000011111"/>
        <request index="8"  response="0000000000000" foes="0000000010100"/>
        <request index="9"  response="0000000000000" foes="0010011110100"/>
        <request index="10" response="0001000000000" foes="0001000010100"/>
        <request index="11" response="0000000000000" foes="0000011110100"/>
        <request index="12" response="0000000000000" foes="0000011110100"/>
    </junction>
    <junction id="91" type="dead_end" x="-1000.00" y="1000.00" incLanes="D1_0 D1_1 D1_2" intLanes="" shape="-1000.00,1000.00 -1000.00,1009.60 -1000.00,1000.00"/>
    <junction id="911" type="priority" x="-500.00" y="1000.00" incLanes="L1_0 L1_1 L1_2 D2_0 D2_1" intLanes="" shape="-500.00,1009.60 -500.00,993.60 -500.00,1009.60">
        <request index="0" response="00000" foes="00000"/>
        <request index="1" response="00000" foes="00000"/>
        <request index="2" response="00000" foes="00000"/>
        <request index="3" response="00000" foes="00000"/>
        <request index="4" response="00000" foes="00000"/>
    </junction>
    <junction id="912" type="priority" x="-500.00" y="0.00" incLanes="L3_0 L3_1 L3_2 D4_0 D4_1" intLanes="" shape="-500.00,9.60 -500.00,-6.40 -500.00,9.60">
        <request index="0" response="00000" foes="00000"/>
        <request index="1" response="00000" foes="00000"/>
        <request index="2" response="00000" foes="00000"/>
        <request index="3" response="00000" foes="00000"/>
        <request index="4" response="00000" foes="00000"/>
    </junction>
    <junction id="913" type="priority" x="2500.00" y="0.00" incLanes="D6_0 D6_1 L5_0 L5_1 L5_2" intLanes="" shape="2500.00,6.40 2500.00,-9.60 2500.00,6.40">
        <request index="0" response="00000" foes="00000"/>
        <request index="1" response="00000" foes="00000"/>
        <request index="2" response="00000" foes="00000"/>
        <request index="3" response="00000" foes="00000"/>
        <request index="4" response="00000" foes="00000"/>
    </junction>
    <junction id="914" type="priority" x="2500.00" y="1000.00" incLanes="D8_0 D8_1 L7_0 L7_1 L7_2" intLanes="" shape="2500.00,1006.40 2500.00,990.40 2500.00,1006.40">
        <request index="0" response="00000" foes="00000"/>
        <request index="1" response="00000" foes="00000"/>
        <request index="2" response="00000" foes="00000"/>
        <request index="3" response="00000" foes="00000"/>
        <request index="4" response="00000" foes="00000"/>
    </junction>
    <junction id="92" type="dead_end" x="-1000.00" y="0.00" incLanes="D3_0 D3_1 D3_2" intLanes="" shape="-1000.00,0.00 -1000.00,9.60 -1000.00,0.00"/>
    <junction id="93" type="dead_end" x="3000.00" y="0.00" incLanes="D5_0 D5_1 D5_2" intLanes="" shape="3000.00,0.00 3000.00,-9.60 3000.00,0.00"/>
    <junction id="94" type="dead_end" x="3000.00" y="1000.00" incLanes="D7_0 D7_1 D7_2" intLanes="" shape="3000.00,1000.00 3000.00,990.40 3000.00,1000.00"/>

    <connection from="D2" to="L2" fromLane="0" toLane="0" dir="s" state="M"/>
    <connection from="D2" to="L2" fromLane="1" toLane="1" dir="s" state="M"/>
    <connection from="D4" to="L4" fromLane="0" toLane="0" dir="s" state="M"/>
    <connection from="D4" to="L4" fromLane="1" toLane="1" dir="s" state="M"/>
    <connection from="D6" to="L6" fromLane="0" toLane="0" dir="s" state="M"/>
    <connection from="D6" to="L6" fromLane="1" toLane="1" dir="s" state="M"/>
    <connection from="D8" to="L8" fromLane="0" toLane="0" dir="s" state="M"/>
    <connection from="D8" to="L8" fromLane="1" toLane="1" dir="s" state="M"/>
    <connection from="L1" to="D1" fromLane="0" toLane="0" dir="s" state="M"/>
    <connection from="L1" to="D1" fromLane="1" toLane="1" dir="s" state="M"/>
    <connection from="L1" to="D1" fromLane="2" toLane="2" dir="s" state="M"/>
    <connection from="L10" to="L7" fromLane="0" toLane="0" dir="s" state="M"/>
    <connection from="L10" to="L7" fromLane="1" toLane="1" dir="s" state="M"/>
    <connection from="L10" to="L7" fromLane="2" toLane="2" dir="s" state="M"/>
    <connection from="L11" to="L1" fromLane="0" toLane="0" dir="s" state="M"/>
    <connection from="L11" to="L1" fromLane="1" toLane="1" dir="s" state="M"/>
    <connection from="L11" to="L1" fromLane="2" toLane="2" dir="s" state="M"/>
    <connection from="L12" to="L15" fromLane="0" toLane="0" dir="r" state="M"/>
    <connection from="L12" to="L10" fromLane="0" toLane="0" dir="s" state="M"/>
    <connection from="L12" to="L15" fromLane="1" toLane="1" dir="r" state="m"/>
    <connection from="L12" to="L10" fromLane="1" toLane="1" dir="s" state="M"/>
    <connection from="L12" to="L10" fromLane="2" toLane="2" dir="s" state="M"/>
    <connection from="L13" to="L3" fromLane="0" toLane="0" dir="s" state="M"/>
    <connection from="L13" to="L3" fromLane="1" toLane="1" dir="s" state="M"/>
    <connection from="L13" to="L3" fromLane="2" toLane="2" dir="s" state="M"/>
    <connection from="L14" to="L18" fromLane="0" toLane="0" dir="s" state="M"/>
    <connection from="L14" to="L18" fromLane="1" toLane="1" dir="s" state="M"/>
    <connection from="L14" to="L16" fromLane="1" toLane="1" dir="l" state="m"/>
    <connection from="L14" to="L18" fromLane="2" toLane="2" dir="s" state="M"/>
    <connection from="L14" to="L16" fromLane="2" toLane="2" dir="l" state="m"/>
    <connection from="L15" to="L13" fromLane="0" toLane="0" dir="r" state="m"/>
    <connection from="L15" to="L13" fromLane="1" toLane="1" dir="r" state="m"/>
    <connection from="L15" to="L18" fromLane="2" toLane="2" dir="l" state="m"/>
    <connection from="L16" to="L10" fromLane="0" toLane="0" dir="r" state="m"/>
    <connection from="L16" to="L10" fromLane="1" toLane="1" dir="r" state="m"/>
    <connection from="L16" to="L11" fromLane="2" toLane="2" dir="l" state="m"/>
    <connection from="L17" to="L16" fromLane="0" toLane="0" dir="r" state="M"/>
    <connection from="L17" to="L13" fromLane="0" toLane="0" dir="s" state="M"/>
    <connection from="L17" to="L16" fromLane="1" toLane="1" dir="r" state="m"/>
    <connection from="L17" to="L13" fromLane="1" toLane="1" dir="s" state="M"/>
    <connection from="L17" to="L13" fromLane="2" toLane="2" dir="s" state="M"/>
    <connection from="L18" to="L5" fromLane="0" toLane="0" dir="s" state="M"/>
    <connection from="L18" to="L5" fromLane="1" toLane="1" dir="s" state="M"/>
    <connection from="L18" to="L5" fromLane="2" toLane="2" dir="s" state="M"/>
    <connection from="L2" to="L12" fromLane="0" toLane="0" dir="s" state="M"/>
    <connection from="L2" to="L12" fromLane="0" toLane="1" dir="s" state="M"/>
    <connection from="L2" to="L12" fromLane="1" toLane="2" dir="s" state="M"/>
    <connection from="L3" to="D3" fromLane="0" toLane="0" dir="s" state="M"/>
    <connection from="L3" to="D3" fromLane="1" toLane="1" dir="s" state="M"/>
    <connection from="L3" to="D3" fromLane="2" toLane="2" dir="s" state="M"/>
    <connection from="L4" to="L14" fromLane="0" toLane="0" dir="s" state="M"/>
    <connection from="L4" to="L14" fromLane="0" toLane="1" dir="s" state="M"/>
    <connection from="L4" to="L14" fromLane="1" toLane="2" dir="s" state="M"/>
    <connection from="L5" to="D5" fromLane="0" toLane="0" dir="s" state="M"/>
    <connection from="L5" to="D5" fromLane="1" toLane="1" dir="s" state="M"/>
    <connection from="L5" to="D5" fromLane="2" toLane="2" dir="s" state="M"/>
    <connection from="L6" to="L17" fromLane="0" toLane="0" dir="s" state="M"/>
    <connection from="L6" to="L17" fromLane="0" toLane="1" dir="s" state="M"/>
    <connection from="L6" to="L17" fromLane="1" toLane="2" dir="s" state="M"/>
    <connection from="L7" to="D7" fromLane="0" toLane="0" dir="s" state="M"/>
    <connection from="L7" to="D7" fromLane="1" toLane="1" dir="s" state="M"/>
    <connection from="L7" to="D7" fromLane="2" toLane="2" dir="s" state="M"/>
    <connection from="L8" to="L9" fromLane="0" toLane="0" dir="s" state="M"/>
    <connection from="L8" to="L9" fromLane="0" toLane="1" dir="s" state="M"/>
    <connection from="L8" to="L9" fromLane="1" toLane="2" dir="s" state="M"/>
    <connection from="L9" to="L11" fromLane="0" toLane="0" dir="s" state="M"/>
    <connection from="L9" to="L11" fromLane="1" toLane="1" dir="s" state="M"/>
    <connection from="L9" to="L15" fromLane="1" toLane="1" dir="l" state="m"/>
    <connection from="L9" to="L11" fromLane="2" toLane="2" dir="s" state="M"/>
    <connection from="L9" to="L15" fromLane="2" toLane="2" dir="l" state="m"/>

</net>
